/*--------------------------------*- C++ -*----------------------------------*\
| =========                 |                                                 |
| \\      /  F ield         | OpenFOAM: The Open Source CFD Toolbox           |
|  \\    /   O peration     | Version:  v2312                                 |
|   \\  /    A nd           | Website:  www.openfoam.com                      |
|    \\/     M anipulation  |                                                 |
\*---------------------------------------------------------------------------*/
FoamFile
{
    version     2.0;
    format      ascii;
    class       volVectorField;
    object      U;
}
// * * * * * * * * * * * * * * * * * * * * * * * * * * * * * * * * * * * * * //

dimensions      [0 1 -1 0 0 0 0];

internalField   uniform (0 0 0.8);

boundaryField
{
    wallTube
    {
        type            noSlip;
    }

    outlet
    {
        type            pressureInletOutletVelocity;
        value           $internalField;
    }

    inletPilot
    {
        type            fixedValue;
        value           uniform (0 0 6.8);
    }

    inletAir
    {
        type            fixedValue;
        value           uniform (0 0 0.8);
    }

    wallOutside
    {
        type            zeroGradient;
    }

    inletNH3
    {
        type            fixedValue;
        value           uniform (0 0 61.07);
    }

    frontAndBack_pos
    {
        type            wedge;
    }

    frontAndBack_neg
    {
        type            wedge;
    }
}


// ************************************************************************* //
