/*--------------------------------*- C++ -*----------------------------------*\
| =========                 |                                                 |
| \\      /  F ield         | OpenFOAM: The Open Source CFD Toolbox           |
|  \\    /   O peration     | Version:  v2312                                 |
|   \\  /    A nd           | Website:  www.openfoam.com                      |
|    \\/     M anipulation  |                                                 |
\*---------------------------------------------------------------------------*/
FoamFile
{
    version     2.0;
    format      ascii;
    class       dictionary;
    object      blockMeshDict;
}
// * * * * * * * * * * * * * * * * * * * * * * * * * * * * * * * * * * * * * //

mergeType points;   // Wedge geometry - Merge points instead of topology

scale   0.001;

z0 0;
z1 100;
z2 500;

y0 0;
y1 0.16383268;
y2 0.17475486;
y3 0.39319844;
y4 5.46108938;

x0 0;
x1 3.75;
x2 4;
x3 9;
x4 125;

vertices
(
   ($x0  $y0 -$z1)   // 0

   ($x1 -$y1 -$z1)   // 1
   ($x1  $y1 -$z1)   // 2

   ($x2 -$y2 -$z1)   // 3
   ($x2  $y2 -$z1)   // 4

   ($x3 -$y3 -$z1)   // 5
   ($x3  $y3 -$z1)   // 6

   ($x0  $y0  $z0)   // 7

   ($x1 -$y1  $z0)   // 8
   ($x1  $y1  $z0)   // 9

   ($x2 -$y2  $z0)   // 10
   ($x2  $y2  $z0)   // 11

   ($x3 -$y3  $z0)   // 12
   ($x3  $y3  $z0)   // 13

   ($x4 -$y4  $z0)   // 14
   ($x4  $y4  $z0)   // 15

   ($x0  $y0  $z2)   // 16

   ($x1 -$y1  $z2)   // 17
   ($x1  $y1  $z2)   // 18

   ($x2 -$y2  $z2)   // 19
   ($x2  $y2  $z2)   // 20

   ($x3 -$y3  $z2)   // 21
   ($x3  $y3  $z2)   // 22

   ($x4 -$y4  $z2)   // 23
   ($x4  $y4  $z2)   // 24
);

blocks
(
    hex ( 0  1  2  0  7  8  9  7)   (10  1 40)   simpleGrading (1 1 1)
    hex ( 3  5  6  4 10 12 13 11)   (10  1 40)   simpleGrading (1 1 1)

    hex ( 7  8  9  7 16 17 18 16)   (10  1 140)   simpleGrading (1 1 2)
    hex ( 8 10 11  9 17 19 20 18)   (2  1 140)   simpleGrading (1 1 2)
    hex (10 12 13 11 19 21 22 20)   (10  1 140)   simpleGrading (1 1 2)
    hex (12 14 15 13 21 23 24 22)   (120 1 140)   simpleGrading (3 1 2)
);

boundary
(
    inletNH3
    {
        type patch;
        faces
        (
            (1 0 0 2)
        );
    }

    wallOutside
    {
        type wall;
        faces
        (
            (14 15 24 23)
        );
    }

    wallTube
    {
        type wall;
        faces
        (
            (1 2 9 8)
            (10 11 9 8)
            (4 3 10 11)
            (5 6 13 12)
        );
    }

    inletPilot
    {
        type patch;
        faces
        (
            (5 3 4 6)
        );
    }

    inletAir
    {
        type patch;
        faces
        (
            (14 12 13 15)
        );
    }

    outlet
    {
        type patch;
        faces
        (
            (16 17 18 16)
            (17 19 20 18)
            (19 21 22 20)
            (21 22 24 23)
        );
    }

    axis
    {
        type empty;
        faces
        (
            (0 7 7 0)
            (7 16 16 7)
        );
    }

    frontAndBack_pos
    {
        type wedge;
        faces
        (
            (2 0 7 9)
            (6 4 11 13)

            (9 7 16 18)
            (11 9 18 20)
            (13 11 20 22)
            (15 13 22 24)
        );
    }

    frontAndBack_neg
    {
        type wedge;
        faces
        (
            (0 1 8 7)
            (3 5 12 10)

            (7 8 17 16)
            (8 10 19 17)
            (10 12 21 19)
            (12 14 23 21)
        );
    }
);


// ************************************************************************* //
